ALPHA-06 (513).webp
AMIGO MX MATTE BLACK (3238).webp
AMIGO MX PLATINUM BLACK (4041).webp
AMIGO MX.png
AQUA BODY JET 4 PCS.jpg
BELMONTE.png
CELSA.png
FOREST NX.png
GL AMIGO MX (1094).webp
GL FOREST NX (GOLD).png
GL HOTSTAR-5X (GOLD).png
GL MADRID GOLD DIVERTER.png
GL SYDNEY MIST (680).webp
GL THERMO 6X (GOLD).png
GL THERMO 6X (ROSE GOLD).png
GL VOLTE (7894).png
GL VOLVO (8027) Size 400 x 400 mm.png
GL WALK MIST (622) Size 600 x 600 mm.png
GRAND-14X.png
GRAND-15X.png
GRANLEY.png
HELIOS CHROME MATTE BLACK BRUSH GOLD ROSE GOLD.png
HELIOS CHROME.png
HOTSTAR-5X CHROME DIVERTER.png
MADRID DIVERTER.png
MARINO CX.png
MATTE BLACK (7388) Size 400 x 400 mm.png
MAXX KONNECT 2.0 (BLACK) Intelligent Showering System.jpg
OAK.png
OSCAR.png
OTIS STEAM PANEL (4.5 KW).png
PERLE.png
RG AMIGO MX (1095).webp
RG FOREST NX (ROSE GOLD).png
RG HOTSTAR-5X (ROSE GOLD).webp
RG MADRID (ROSE GOLD) DIVERTER.png
RG SYDNEY MIST (681).webp
RG VOLTE (7895).png
RG VOLVO (8028) Size 400 x 400 mm.png
RG WALK MIST (623) Size 600 x 600 mm.png
SENSATION (BLACK) Body Jet with LED 2 PCS.jpg
SENSATION Body Jet with LED 2 PCS.jpg
STORM.png
SYDNEY MIST MATTE BLACK (2160).webp
TASMAINA.png
THERMO 6X (BLACK).png
THERMO 6X.png
VIVA MATTE BLACK (7866) Size 400 x 400 mm.png
VOLTE MATTE BLACK (7895).png
WALK MIST MATTE BLACK (3056) Size 600 x 600 mm.png
WISDOM NEXTGEN MATTE BLACK (8528).png
WISDON MX MATTE BLACK (4040).png
WISDON MX ROSE GOLD (3419).png
X-SMART (BLACK) Tankless Intelligent WC.png
ZURA.png